#!/sbin/sh
SKIPUNZIP=1
unzip -o "$ZIPFILE" 'module.prop' -d "$MODPATH" >&2
unzip -o "$ZIPFILE" 'zygisk/*' -d "$MODPATH" >&2
